Version 4.1
SHEET 1 880 680
WIRE 176 16 48 16
WIRE 224 16 176 16
WIRE 384 16 288 16
WIRE 512 16 384 16
WIRE 48 96 48 16
WIRE 176 128 176 16
WIRE 224 128 176 128
WIRE 384 128 384 16
WIRE 384 128 288 128
WIRE 512 144 512 16
WIRE 48 240 48 176
WIRE 176 240 48 240
WIRE 224 240 176 240
WIRE 384 240 288 240
WIRE 176 336 176 240
WIRE 224 336 176 336
WIRE 384 336 384 240
WIRE 384 336 288 336
WIRE 512 336 512 224
WIRE 512 336 384 336
SYMBOL voltage 48 80 R0
WINDOW 123 0 0 Left 0
WINDOW 39 0 0 Left 0
SYMATTR InstName V1
SYMATTR Value 127
SYMBOL diode 224 32 R270
WINDOW 0 32 32 VTop 2
WINDOW 3 0 32 VBottom 2
SYMATTR InstName D1
SYMBOL diode 288 112 R90
WINDOW 0 0 32 VBottom 2
WINDOW 3 32 32 VTop 2
SYMATTR InstName D2
SYMBOL diode 224 256 R270
WINDOW 0 32 32 VTop 2
WINDOW 3 0 32 VBottom 2
SYMATTR InstName D3
SYMBOL diode 288 320 R90
WINDOW 0 0 32 VBottom 2
WINDOW 3 32 32 VTop 2
SYMATTR InstName D4
SYMBOL res 496 128 R0
SYMATTR InstName R1
SYMATTR Value 1000
TEXT 8 392 Left 2 !.tran 1 startup
