Version 4.1
SHEET 1 880 680
WIRE 176 16 16 16
WIRE 224 16 176 16
WIRE 384 16 288 16
WIRE 448 16 384 16
WIRE 528 16 448 16
WIRE 528 64 528 16
WIRE 16 112 16 16
WIRE 176 128 176 16
WIRE 224 128 176 128
WIRE 384 128 384 16
WIRE 384 128 288 128
WIRE 448 144 448 16
WIRE 528 192 528 144
WIRE 224 240 176 240
WIRE 384 240 288 240
WIRE 16 336 16 192
WIRE 80 336 16 336
WIRE 176 336 176 240
WIRE 176 336 80 336
WIRE 224 336 176 336
WIRE 384 336 384 240
WIRE 384 336 288 336
WIRE 448 336 448 208
WIRE 448 336 384 336
WIRE 528 336 528 272
WIRE 528 336 448 336
WIRE 80 352 80 336
FLAG 80 352 0
SYMBOL diode 224 32 R270
WINDOW 0 32 32 VTop 2
WINDOW 3 0 32 VBottom 2
SYMATTR InstName D1
SYMBOL diode 288 112 R90
WINDOW 0 0 32 VBottom 2
WINDOW 3 32 32 VTop 2
SYMATTR InstName D2
SYMBOL diode 224 256 R270
WINDOW 0 32 32 VTop 2
WINDOW 3 0 32 VBottom 2
SYMATTR InstName D3
SYMBOL diode 288 320 R90
WINDOW 0 0 32 VBottom 2
WINDOW 3 32 32 VTop 2
SYMATTR InstName D4
SYMBOL res 512 176 R0
SYMATTR InstName R1
SYMATTR Value 100
SYMBOL ind 512 48 R0
SYMATTR InstName L1
SYMATTR Value 100m
SYMBOL cap 432 144 R0
SYMATTR InstName C1
SYMATTR Value 100µ
SYMBOL voltage 16 96 R0
WINDOW 123 0 0 Left 0
WINDOW 39 0 0 Left 0
SYMATTR InstName V1
SYMATTR Value SINE(0 179 60 60 0 0 0)
TEXT 8 392 Left 2 !.tran 10
