Version 4.1
SHEET 1 880 680
WIRE 336 -80 192 -80
WIRE 432 -80 336 -80
WIRE 560 -80 432 -80
WIRE 192 -48 192 -80
WIRE 336 -48 336 -80
WIRE 560 16 560 -80
WIRE 192 64 192 16
WIRE 192 64 16 64
WIRE 432 80 432 -80
WIRE 16 112 16 64
WIRE 560 128 560 96
WIRE 16 208 16 192
WIRE 336 208 336 16
WIRE 336 208 16 208
WIRE 192 224 192 64
WIRE 336 224 336 208
WIRE 192 336 192 288
WIRE 336 336 336 288
WIRE 336 336 192 336
WIRE 384 336 336 336
WIRE 432 336 432 144
WIRE 432 336 384 336
WIRE 560 336 560 208
WIRE 560 336 432 336
WIRE 384 352 384 336
FLAG 384 352 0
SYMBOL res 544 112 R0
SYMATTR InstName R1
SYMATTR Value 100
SYMBOL ind 544 0 R0
SYMATTR InstName L1
SYMATTR Value 100m
SYMBOL cap 416 80 R0
SYMATTR InstName C1
SYMATTR Value 100µ
SYMBOL voltage 16 96 R0
WINDOW 123 0 0 Left 0
WINDOW 39 0 0 Left 0
SYMATTR InstName V1
SYMATTR Value SINE(0 180 60)
SYMBOL diode 208 16 R180
WINDOW 0 24 64 Left 2
WINDOW 3 24 0 Left 2
SYMATTR InstName D1
SYMBOL diode 352 16 R180
WINDOW 0 24 64 Left 2
WINDOW 3 24 0 Left 2
SYMATTR InstName D2
SYMBOL diode 208 288 R180
WINDOW 0 24 64 Left 2
WINDOW 3 24 0 Left 2
SYMATTR InstName D3
SYMBOL diode 352 288 R180
WINDOW 0 24 64 Left 2
WINDOW 3 24 0 Left 2
SYMATTR InstName D4
TEXT 8 392 Left 2 !.tran 1
